1
    SWAT Dec 11 2014    VER 2012/Rev 635                                                                 0/ 0/   0      0: 0: 0

    General Input/Output section (file.cio):                                        
    5/20/2015 12:00:00 AM ARCGIS-SWAT interface AV                                  
                                                                                    
         Number of years in run:   15
         Area of watershed:      331.882 km2
         Random number generator cycles: 0, use default numbers

         Initial random number seed: wet/dry day prob        748932582
         Initial random number seed: radiation              1948832765
         Initial random number seed: precipitation           857034417
         Initial random number seed: 0.5 hr rainfall          67377721
         Initial random number seed: wind speed              366304404
         Initial random number seed: irrigation             1094585182
         Initial random number seed: relative humidity      1767585417
         Initial random number seed: max temperature         608439319
         Initial random number seed: min temperature         592757081

         Precipitation data used in run:
          Multiple gages read for watershed
             Daily rainfall data used

         Temperature data used in run:
          Multiple gages read for watershed

         PET method used: Penman-Monteith

         Rainfall/Runoff/Routing Option:
          Daily rainfall data
          Runoff estimated with curve number method
          Daily stream routing
           Variable Storage routing method
           Channel dimensions remain constant
           Subbasin algae/CBOD loadings not modeled
           In-stream nutrient transformations modeled using QUAL2E equations

         Subbasin Input Summary:
          Sub Latitude  Elev(m) #HRUs Ponds Elevbnds Wetlnd
            1    31.74   132.37    26                   
            2    31.74   127.03    13                   
            3    31.74   113.80    36                   
            4    31.74   112.23    25                   
            5    31.74   106.24    32                   
            6    31.74    98.25    23                   
            7    31.74   108.88    23                   
            8    31.74   105.38    41                   
            9    31.74   133.59    29                   
           10    31.74   126.84    21                   
           11    31.74   129.17    28                   
           12    31.74   117.62    30                   
           13    31.74   119.05    31                   
           14    31.74   110.81    38                   
           15    31.74   103.18    22                   
           16    31.74    92.68    42                   
           17    31.74   136.37    24                   
           18    31.74   122.32    40                   
           19    31.74   131.61    28                   
           20    31.74   109.84    22                   
           21    31.74   112.35    14                   
           22    31.74    96.12    49                   
           23    31.74   103.28    16                   
           24    31.74    96.71    36                   
           25    31.74   135.62    24                   
           26    31.74   129.55    45                   
           27    31.72   123.83    22                   
           28    31.72   116.99    30                   
           29    31.72   115.75    26                   
           30    31.72   110.06    22                   
           31    31.72   104.52    23                   
           32    31.72    90.96    17                   
           33    31.72   127.99    36                   
           34    31.72   125.12    30                   
           35    31.72   122.04    20                   
           36    31.72   117.60    19                   
           37    31.72   107.11    29                   
           38    31.72   102.53    23                   
           39    31.72    88.87    33                   
           40    31.67    89.96    39                   
           41    31.67   126.85    16                   
           42    31.67   124.20     9                   
           43    31.67   128.37    21                   
           44    31.67   112.91    17                   
           45    31.67   109.88    23                   
           46    31.67   111.32    20                   
           47    31.67   104.50    25                   
           48    31.67    85.88    35                   
           49    31.67   126.58    18                   
           50    31.67   120.47    28                   
           51    31.67   114.70    27                   
           52    31.67   114.83    32                   
           53    31.67   106.92    40                   
           54    31.67    92.81    25                   
           55    31.67   105.51    27                   
           56    31.67    83.51    10                   
           57    31.67   124.52    28                   
           58    31.67   125.97    19                   
           59    31.67   116.40    35                   
           60    31.67   123.78    26                   
           61    31.67   101.40    34                   
           62    31.67   106.91    30                   
           63    31.67   110.41    32                   
           64    31.67    83.27    16                   
           65    31.67   126.26    35                   
           66    31.67   122.76    28                   
           67    31.67   116.18    37                   
           68    31.67   109.66    38                   
           69    31.67   106.95    33                   
           70    31.67   110.27    23                   
           71    31.67   109.83    23                   
           72    31.67    82.84     9                   
           73    31.67   123.05    32                   
           74    31.67   120.74    33                   
           75    31.67   111.96    21                   
           76    31.65   115.57    21                   
           77    31.65    95.26    39                   
           78    31.65   101.83    43                   
           79    31.65   125.64    20                   
           80    31.65   125.16    24                   
           81    31.65   122.64    28                   
           82    31.65   111.12     9                   
           83    31.65   104.23    53                   
           84    31.65   105.57    24                   
           85    31.65   129.15    30                   
           86    31.65   125.68    35                   
           87    31.65   115.08    23                   
           88    31.65   115.82    27                   
           89    31.65   108.61    29                   
           90    31.65   108.45    35                   
           91    31.65   117.19    34                   
           92    31.65   113.59    25                   
           93    31.65   113.91    25                   
           94    31.65   101.57    29                   
           95    31.65   110.71    40                   
           96    31.65    99.08    42                   
           97    31.65   125.20    28                   
           98    31.65   114.80    27                   
           99    31.65   119.98    25                   
          100    31.65   107.13    32                   
          101    31.61    91.40    36                   
          102    31.61   100.84    36                   
          103    31.61   117.92    22                   
          104    31.61   110.09    47                   
          105    31.61   107.37    39                   
          106    31.61   104.34    24                   
          107    31.61   109.78    27                   
          108    31.61    97.73    49                   
          109    31.61   120.82    20                   
          110    31.61   109.48    23                   
          111    31.61   108.38    25                   
          112    31.61   113.39    18                   
          113    31.61   109.31    30                   
          114    31.61    98.70    39                   
          115    31.61   116.58    32                   
          116    31.61   126.78    29                   
          117    31.61   122.34    20                   
          118    31.61   106.53    15                   
          119    31.61   105.33    19                   
          120    31.61   109.67    41                   
          121    31.61   115.50     8                   
          122    31.61   120.32    36                   
          123    31.61   113.92    29                   
          124    31.61   101.45    20                   
          125    31.61   101.70    15                   
          126    31.61    99.74    37                   
          127    31.61   112.13    46                   
          128    31.61   105.91    41                   
          129    31.61   125.55    31                   
          130    31.61   112.04    22                   
          131    31.61   101.86    12                   
          132    31.61   101.20    30                   
          133    31.58   117.08    26                   
          134    31.58   104.91    25                   
          135    31.58   111.02    20                   
          136    31.58    96.50    33                   
          137    31.58    95.77    46                   
          138    31.58    97.98    36                   
          139    31.58   117.36    33                   
          140    31.58   115.76    12                   
          141    31.58   112.47    16                   
          142    31.58   107.77    28                   
          143    31.58    96.55    10                   
          144    31.58    92.80    31                   
          145    31.58   121.50    40                   
          146    31.58   114.43    29                   
          147    31.58   111.91    22                   
          148    31.58   108.44    28                   
          149    31.58    86.75    16                   
          150    31.58   104.04    22                   
          151    31.58   111.43     4                   
          152    31.58   101.06    10                   
          153    31.58   119.86    29                   
          154    31.58   100.58    13                   
          155    31.58    87.13    13                   
          156    31.53    99.49    23                   
          157    31.53   118.45    29                   
          158    31.53   106.70    25                   
          159    31.53   102.74    38                   
          160    31.53   102.59    11                   
          161    31.53    99.56    33                   
          162    31.53    86.22    17                   
          163    31.53   109.55    15                   
          164    31.53   118.13    31                   
          165    31.53   112.23    19                   
          166    31.53    92.13    25                   
          167    31.53    90.21    16                   
          168    31.53    96.47     6                   
          169    31.53   110.00    17                   
          170    31.53   108.41    15                   
          171    31.53   112.63    21                   
          172    31.53   100.59    12                   
          173    31.53    91.43    45                   
          174    31.53   100.47    35                   
          175    31.53   113.65    31                   
          176    31.53   114.01    31                   
          177    31.53   106.30    22                   
          178    31.53   105.46    42                   
          179    31.49   102.99    14                   
          180    31.49    83.80     5                   
          181    31.49   113.76    34                   
          182    31.49   106.46    40                   
          183    31.49   113.66    35                   
          184    31.49   106.61    27                   
          185    31.49    95.10     9                   
          186    31.49    84.28     9                   
          187    31.49   110.22    27                   
          188    31.49   100.65     9                   
          189    31.49   107.68    32                   
          190    31.49   103.59    29                   
          191    31.49    91.16    30                   
          192    31.49   101.64    17                   
          193    31.49    99.40     1                   
          194    31.49   102.16    16                   
          195    31.49    99.55    41                   
          196    31.49    96.13    39                   
          197    31.49    97.01     6                   
          198    31.49   103.35    37                   
          199    31.49   101.67    49                   
          200    31.49   102.43    11                   
          201    31.49    87.39    12                   
          202    31.49    98.07    29                   
          203    31.49   112.28    13                   
          204    31.49    97.32    10                   
          205    31.49    87.95     6                   
          206    31.49    98.72    33                   
          207    31.49   111.47    11                   
          208    31.49    98.35    20                   
          209    31.49    91.90    39                   
          210    31.49    93.26    30                   
          211    31.49   110.15    20                   
          212    31.49   104.04    23                   
          213    31.49    91.31    36                   
          214    31.49    90.33    31                   
          215    31.49    99.10    10                   
          216    31.49    94.62     8                   
          217    31.49    86.60    20                   
          218    31.49    87.59    24                   
          219    31.49   101.58    31                   
          220    31.74    98.01    16                   
          221    31.74    85.04     1                   
          222    31.74    88.78    29                   
          223    31.74   109.28    22                   
          224    31.74   104.92    25                   
          225    31.74    90.08    48                   
          226    31.74    85.46    11                   
          227    31.74   106.11    11                   
          228    31.74    97.89    36                   
          229    31.74    88.89    41                   
          230    31.74    93.00     1                   
          231    31.74   101.44    35                   
          232    31.74    97.67    21                   
          233    31.74    92.23    21                   
          234    31.74   108.37    18                   
          235    31.74    93.52    34                   
          236    31.74   108.12    39                   
          237    31.74    99.74    36                   
          238    31.74    97.70    27                   
          239    31.74    99.78    38                   
          240    31.74    92.09     2                   

         HRU Input Summary Table 1:
          Sub   HRU   Area(ha) Slope SlpLgth(m) Ovrlnd_N CondII_CN TimeConc(hr) ESCO EPCO
            1      1      15.39 0.035      91.46    0.140     77.00        0.724 0.95 1.00
            1      2       0.72 0.019     121.95    0.140     77.00        1.003 0.95 1.00
            1      3      79.11 0.030      91.46    0.140     77.00        0.828 0.95 1.00
            1      4       0.27 0.046      91.46    0.140     83.00        0.647 0.95 1.00
            1      5       2.79 0.045      91.46    0.140     87.00        0.656 0.95 1.00
            1      6       1.17 0.013     121.95    0.150     69.00        1.173 0.95 1.00
            1      7       0.18 0.006     121.95    0.150     69.00        1.476 0.95 1.00
            1      8       5.49 0.037      91.46    0.150     69.00        0.728 0.95 1.00
            1      9       2.52 0.020      91.46    0.150     84.00        0.870 0.95 1.00
            1     10       3.96 0.042      91.46    0.100     55.00        0.550 0.95 1.00
            1     11       3.69 0.013     121.95    0.100     55.00        0.924 0.95 1.00
            1     12      13.23 0.033      91.46    0.100     55.00        0.603 0.95 1.00
            1     13       5.67 0.026      91.46    0.100     70.00        0.636 0.95 1.00
            1     14       7.02 0.019     121.95    0.100     77.00        0.830 0.95 1.00
            1     15       0.27 0.039      91.46    0.100     66.00        0.556 0.95 1.00
            1     16       0.72 0.013     121.95    0.100     66.00        0.919 0.95 1.00
            1     17      10.17 0.037      91.46    0.100     66.00        0.579 0.95 1.00
            1     18       0.54 0.033      91.46    0.100     77.00        0.585 0.95 1.00
            1     19       7.56 0.032      91.46    0.100     83.00        0.601 0.95 1.00
            1     20       0.36 0.042      91.46    0.050     66.00        0.359 0.95 1.00
            1     21       7.29 0.009     121.95    0.050     66.00        0.687 0.95 1.00
            1     22       2.61 0.021      91.46    0.050     66.00        0.446 0.95 1.00
            1     23       1.26 0.013     121.95    0.050     83.00        0.608 0.95 1.00
            1     24       0.36 0.009     121.95    0.100     63.29        1.025 0.95 1.00
            1     25       2.34 0.034      91.46    0.100     63.29        0.583 0.95 1.00
            1     26       0.63 0.007     121.95    0.100     81.09        1.106 0.95 1.00
            2     27       2.70 0.033      91.46    0.140     77.00        0.717 0.95 1.00
            2     28       1.80 0.041      91.46    0.140     77.00        0.671 0.95 1.00
            2     29       1.98 0.023      91.46    0.150     69.00        0.832 0.95 1.00
            2     30       0.27 0.007     121.95    0.150     84.00        1.409 0.95 1.00
            2     31      11.43 0.028      91.46    0.100     55.00        0.622 0.95 1.00
            2     32       1.17 0.017     121.95    0.100     55.00        0.848 0.95 1.00
            2     33      11.07 0.030      91.46    0.100     55.00        0.609 0.95 1.00
            2     34      48.51 0.037      91.46    0.100     55.00        0.596 0.95 1.00
            2     35       1.71 0.029      91.46    0.100     70.00        0.609 0.95 1.00
            2     36      18.54 0.026      91.46    0.100     77.00        0.641 0.95 1.00
            2     37       0.81 0.033      91.46    0.100     66.00        0.585 0.95 1.00
            2     38       1.98 0.006     121.95    0.050     83.00        0.765 0.95 1.00
            2     39       0.09 0.011     121.95    0.100     81.09        0.965 0.95 1.00
            3     40      25.11 0.024      91.46    0.140     77.00        0.835 0.95 1.00
            3     41       4.50 0.028      91.46    0.140     77.00        0.761 0.95 1.00
            3     42     121.86 0.029      91.46    0.140     77.00        0.938 0.95 1.00
            3     43      16.47 0.048      91.46    0.140     83.00        0.672 0.95 1.00
            3     44       1.17 0.024      91.46    0.140     83.00        0.789 0.95 1.00
            3     45      13.86 0.023      91.46    0.140     87.00        0.825 0.95 1.00
            3     46       3.87 0.025      91.46    0.150     69.00        0.819 0.95 1.00
            3     47      10.53 0.030      91.46    0.150     69.00        0.789 0.95 1.00
            3     48      11.52 0.041      91.46    0.150     79.00        0.722 0.95 1.00
            3     49       2.16 0.023      91.46    0.150     84.00        0.836 0.95 1.00
            3     50       3.06 0.031      91.46    0.100     55.00        0.603 0.95 1.00
            3     51       4.05 0.013     121.95    0.100     55.00        0.927 0.95 1.00
            3     52       3.69 0.025      91.46    0.100     55.00        0.644 0.95 1.00
            3     53      14.85 0.040      91.46    0.100     55.00        0.582 0.95 1.00
            3     54      11.52 0.041      91.46    0.100     70.00        0.572 0.95 1.00
            3     55       1.98 0.023      91.46    0.100     70.00        0.656 0.95 1.00
            3     56      10.26 0.020      91.46    0.100     77.00        0.701 0.95 1.00
            3     57       4.05 0.014     121.95    0.100     66.00        0.907 0.95 1.00
            3     58       2.88 0.017     121.95    0.100     66.00        0.854 0.95 1.00
            3     59       0.36 0.026      91.46    0.100     66.00        0.628 0.95 1.00
            3     60       8.73 0.035      91.46    0.100     66.00        0.593 0.95 1.00
            3     61       4.14 0.031      91.46    0.100     77.00        0.605 0.95 1.00
            3     62       0.27 0.038      91.46    0.100     77.00        0.561 0.95 1.00
            3     63      15.39 0.021      91.46    0.100     83.00        0.701 0.95 1.00
            3     64       4.50 0.019     121.95    0.050     66.00        0.551 0.95 1.00
            3     65      13.23 0.016     121.95    0.050     66.00        0.597 0.95 1.00
            3     66       0.81 0.023      91.46    0.050     66.00        0.432 0.95 1.00
            3     67       8.19 0.030      91.46    0.050     66.00        0.415 0.95 1.00
            3     68       5.67 0.035      91.46    0.050     77.00        0.392 0.95 1.00
            3     69       0.45 0.026      91.46    0.050     77.00        0.415 0.95 1.00
            3     70      16.02 0.022      91.46    0.050     83.00        0.468 0.95 1.00
            3     71       8.01 0.016     121.95    0.010     92.00        0.235 0.95 1.00
            3     72       0.81 0.021      91.46    0.100     63.29        0.671 0.95 1.00
            3     73      15.21 0.027      91.46    0.100     63.29        0.652 0.95 1.00
            3     74       0.27 0.024      91.46    0.100     74.86        0.643 0.95 1.00
            3     75       2.25 0.032      91.46    0.100     81.09        0.595 0.95 1.00
            4     76       1.80 0.036      91.46    0.140     77.00        0.700 0.95 1.00
            4     77       5.76 0.028      91.46    0.140     77.00        0.761 0.95 1.00
            4     78      34.20 0.019     121.95    0.140     77.00        1.049 0.95 1.00
            4     79       4.41 0.034      91.46    0.140     83.00        0.716 0.95 1.00
            4     80       3.42 0.017     121.95    0.140     87.00        1.042 0.95 1.00
            4     81       1.26 0.026      91.46    0.150     69.00        0.802 0.95 1.00
            4     82       3.42 0.024      91.46    0.150     69.00        0.826 0.95 1.00
            4     83       0.09 0.022      91.46    0.150     69.00        0.841 0.95 1.00
            4     84       6.12 0.014     121.95    0.150     69.00        1.155 0.95 1.00
            4     85       7.56 0.039      91.46    0.150     79.00        0.721 0.95 1.00
            4     86       3.15 0.019     121.95    0.150     84.00        1.050 0.95 1.00
            4     87       0.45 0.008     121.95    0.150     84.00        1.355 0.95 1.00
            4     88       2.16 0.006     121.95    0.100     77.00        1.161 0.95 1.00
            4     89       0.45 0.037      91.46    0.100     66.00        0.565 0.95 1.00
            4     90       1.08 0.027      91.46    0.100     83.00        0.622 0.95 1.00
            4     91       1.17 0.025      91.46    0.050     66.00        0.421 0.95 1.00
            4     92       1.08 0.023      91.46    0.050     66.00        0.432 0.95 1.00
            4     93       0.45 0.046      91.46    0.050     66.00        0.350 0.95 1.00
            4     94       1.35 0.036      91.46    0.050     77.00        0.378 0.95 1.00
            4     95       1.62 0.017     121.95    0.050     83.00        0.562 0.95 1.00
            4     96       0.09 0.001     121.95    0.050     83.00        1.307 0.95 1.00
            4     97       4.41 0.015     121.95    0.010     92.00        0.229 0.95 1.00
            4     98       0.54 0.033      91.46    0.100     63.29        0.585 0.95 1.00
            4     99       0.18 0.042      91.46    0.100     74.86        0.544 0.95 1.00
            4    100       0.27 0.034      91.46    0.100     81.09        0.579 0.95 1.00
            5    101       4.86 0.031      91.46    0.140     77.00        0.733 0.95 1.00
            5    102      32.04 0.025      91.46    0.140     77.00        0.804 0.95 1.00
            5    103       2.43 0.028      91.46    0.140     83.00        0.753 0.95 1.00
            5    104      10.98 0.034      91.46    0.140     83.00        0.719 0.95 1.00
            5    105       1.80 0.022      91.46    0.140     83.00        0.809 0.95 1.00
            5    106       8.46 0.029      91.46    0.140     87.00        0.751 0.95 1.00
            5    107       1.44 0.018     121.95    0.150     69.00        1.063 0.95 1.00
            5    108       0.18 0.026      91.46    0.150     79.00        0.800 0.95 1.00
            5    109       0.18 0.025      91.46    0.150     79.00        0.810 0.95 1.00
            5    110       0.36 0.026      91.46    0.150     84.00        0.800 0.95 1.00
            5    111       7.11 0.035      91.46    0.100     55.00        0.581 0.95 1.00
            5    112       8.10 0.039      91.46    0.100     55.00        0.564 0.95 1.00
            5    113       0.27 0.025      91.46    0.100     70.00        0.635 0.95 1.00
            5    114       1.53 0.046      91.46    0.100     70.00        0.530 0.95 1.00
            5    115       7.65 0.030      91.46    0.100     77.00        0.609 0.95 1.00
            5    116       0.09 0.044      91.46    0.100     66.00        0.536 0.95 1.00
            5    117       1.62 0.033      91.46    0.100     66.00        0.586 0.95 1.00
            5    118       0.09 0.025      91.46    0.100     77.00        0.635 0.95 1.00
            5    119       0.63 0.033      91.46    0.100     77.00        0.585 0.95 1.00
            5    120       1.35 0.028      91.46    0.100     83.00        0.615 0.95 1.00
            5    121       3.06 0.012     121.95    0.050     66.00        0.624 0.95 1.00
            5    122       3.51 0.047      91.46    0.050     66.00        0.350 0.95 1.00
            5    123       3.69 0.028      91.46    0.050     66.00        0.409 0.95 1.00
            5    124       0.45 0.034      91.46    0.050     77.00        0.382 0.95 1.00
            5    125       0.27 0.012     121.95    0.050     77.00        0.620 0.95 1.00
            5    126       0.45 0.030      91.46    0.050     77.00        0.397 0.95 1.00
            5    127       9.00 0.026      91.46    0.050     83.00        0.423 0.95 1.00
            5    128       3.06 0.015     121.95    0.010     92.00        0.224 0.95 1.00
            5    129       0.90 0.030      91.46    0.100     63.29        0.602 0.95 1.00
            5    130       0.09 0.020     121.95    0.100     74.86        0.806 0.95 1.00
            5    131       0.36 0.013     121.95    0.100     74.86        0.918 0.95 1.00
            5    132       0.18 0.016     121.95    0.100     81.09        0.862 0.95 1.00
            6    133      22.05 0.028      91.46    0.140     67.00        0.785 0.95 1.00
            6    134       2.07 0.011     121.95    0.140     77.00        1.185 0.95 1.00
            6    135       9.54 0.022      91.46    0.140     77.00        0.824 0.95 1.00
            6    136      20.52 0.039      91.46    0.140     77.00        0.712 0.95 1.00
            6    137       1.53 0.059      60.98    0.140     83.00        0.474 0.95 1.00
            6    138       6.57 0.020     121.95    0.140     83.00        0.999 0.95 1.00
            6    139       1.44 0.047      91.46    0.150     49.00        0.673 0.95 1.00
            6    140       6.30 0.016     121.95    0.150     69.00        1.111 0.95 1.00
            6    141       1.17 0.029      91.46    0.150     69.00        0.777 0.95 1.00
            6    142       4.41 0.017     121.95    0.150     79.00        1.088 0.95 1.00
            6    143       3.51 0.017     121.95    0.100     35.00        0.854 0.95 1.00
            6    144      17.01 0.018     121.95    0.100     55.00        0.860 0.95 1.00
            6    145      15.66 0.019     121.95    0.100     70.00        0.845 0.95 1.00
            6    146       7.74 0.025      91.46    0.100     45.00        0.648 0.95 1.00
            6    147      44.82 0.023      91.46    0.100     66.00        0.715 0.95 1.00
            6    148       7.65 0.041      91.46    0.100     66.00        0.561 0.95 1.00
            6    149       0.18 0.030      91.46    0.100     77.00        0.601 0.95 1.00
            6    150      20.16 0.021      91.46    0.100     77.00        0.701 0.95 1.00
            6    151       1.71 0.010     121.95    0.050     45.00        0.659 0.95 1.00
            6    152      17.01 0.011     121.95    0.050     66.00        0.664 0.95 1.00
            6    153       1.89 0.010     121.95    0.050     77.00        0.659 0.95 1.00
            6    154       0.81 0.024      91.46    0.010     92.00        0.163 0.95 1.00
            6    155       0.27 0.019     121.95    0.100     63.29        0.820 0.95 1.00
            7    156       1.80 0.019     121.95    0.140     77.00        1.005 0.95 1.00
            7    157       0.45 0.012     121.95    0.140     77.00        1.151 0.95 1.00
            7    158      41.04 0.036      91.46    0.140     77.00        0.751 0.95 1.00
            7    159      10.17 0.036      91.46    0.140     83.00        0.712 0.95 1.00
            7    160       7.65 0.027      91.46    0.140     87.00        0.771 0.95 1.00
            7    161       1.26 0.021      91.46    0.150     69.00        0.855 0.95 1.00
            7    162       8.19 0.034      91.46    0.150     69.00        0.751 0.95 1.00
            7    163       0.36 0.045      91.46    0.150     79.00        0.679 0.95 1.00
            7    164       2.61 0.023      91.46    0.150     84.00        0.835 0.95 1.00
            7    165       2.52 0.033      91.46    0.100     55.00        0.589 0.95 1.00
            7    166       9.45 0.034      91.46    0.100     55.00        0.594 0.95 1.00
            7    167       6.30 0.040      91.46    0.100     70.00        0.562 0.95 1.00
            7    168      10.26 0.029      91.46    0.100     77.00        0.623 0.95 1.00
            7    169       0.09 0.027      91.46    0.100     66.00        0.620 0.95 1.00
            7    170       0.45 0.042      91.46    0.100     77.00        0.544 0.95 1.00
            7    171       0.36 0.016     121.95    0.100     83.00        0.863 0.95 1.00
            7    172       0.09 0.008     121.95    0.050     66.00        0.700 0.95 1.00
            7    173       0.27 0.024      91.46    0.050     66.00        0.424 0.95 1.00
            7    174       2.88 0.028      91.46    0.050     66.00        0.410 0.95 1.00
            7    175       9.63 0.022      91.46    0.050     83.00        0.450 0.95 1.00
            7    176       2.16 0.025      91.46    0.010     92.00        0.164 0.95 1.00
            7    177       2.07 0.029      91.46    0.100     63.29        0.611 0.95 1.00
            7    178       0.18 0.031      91.46    0.100     81.09        0.595 0.95 1.00
            8    179       0.18 0.024      91.46    0.140     67.00        0.787 0.95 1.00
            8    180       6.21 0.024      91.46    0.140     77.00        0.797 0.95 1.00
            8    181       1.26 0.026      91.46    0.140     77.00        0.770 0.95 1.00
            8    182      15.57 0.020      91.46    0.140     77.00        0.855 0.95 1.00
            8    183       1.08 0.030      91.46    0.140     83.00        0.738 0.95 1.00
            8    184       0.36 0.033      91.46    0.140     83.00        0.715 0.95 1.00
            8    185       0.72 0.026      91.46    0.140     87.00        0.769 0.95 1.00
            8    186      10.71 0.025      91.46    0.150     69.00        0.827 0.95 1.00
            8    187       0.45 0.028      91.46    0.150     69.00        0.783 0.95 1.00
            8    188       5.31 0.029      91.46    0.150     69.00        0.784 0.95 1.00
            8    189      27.27 0.025      91.46    0.150     69.00        0.849 0.95 1.00
            8    190      15.21 0.035      91.46    0.150     79.00        0.756 0.95 1.00
            8    191       8.55 0.028      91.46    0.150     84.00        0.797 0.95 1.00
            8    192       0.81 0.029      91.46    0.100     35.00        0.609 0.95 1.00
            8    193       7.47 0.033      91.46    0.100     55.00        0.597 0.95 1.00
            8    194       0.09 0.025      91.46    0.100     55.00        0.635 0.95 1.00
            8    195       4.68 0.044      91.46    0.100     55.00        0.544 0.95 1.00
            8    196       0.27 0.027      91.46    0.100     55.00        0.621 0.95 1.00
            8    197       5.49 0.029      91.46    0.100     70.00        0.617 0.95 1.00
            8    198       0.18 0.024      91.46    0.100     70.00        0.643 0.95 1.00
            8    199      18.99 0.029      91.46    0.100     77.00        0.636 0.95 1.00
            8    200       1.44 0.027      91.46    0.100     66.00        0.623 0.95 1.00
            8    201       0.18 0.018     121.95    0.100     66.00        0.833 0.95 1.00
            8    202       1.71 0.029      91.46    0.100     66.00        0.610 0.95 1.00
            8    203       0.36 0.023      91.46    0.100     77.00        0.651 0.95 1.00
            8    204       3.24 0.027      91.46    0.100     83.00        0.626 0.95 1.00
            8    205       0.45 0.032      91.46    0.050     45.00        0.390 0.95 1.00
            8    206       2.16 0.031      91.46    0.050     66.00        0.397 0.95 1.00
            8    207       1.98 0.021      91.46    0.050     66.00        0.445 0.95 1.00
            8    208       0.45 0.035      91.46    0.050     66.00        0.380 0.95 1.00
            8    209       0.18 0.049      91.46    0.050     66.00        0.343 0.95 1.00
            8    210       1.89 0.036      91.46    0.050     77.00        0.379 0.95 1.00
            8    211       0.18 0.025      91.46    0.050     77.00        0.419 0.95 1.00
            8    212       9.99 0.026      91.46    0.050     83.00        0.430 0.95 1.00
            8    213       5.04 0.014     121.95    0.010     92.00        0.235 0.95 1.00
            8    214       3.96 0.026      91.46    0.100     63.29        0.635 0.95 1.00
            8    215       4.77 0.025      91.46    0.100     63.29        0.643 0.95 1.00
            8    216       6.12 0.032      91.46    0.100     63.29        0.600 0.95 1.00
            8    217      10.44 0.028      91.46    0.100     74.86        0.631 0.95 1.00
            8    218       2.34 0.029      91.46    0.100     74.86        0.612 0.95 1.00
            8    219       3.51 0.021      91.46    0.100     81.09        0.675 0.95 1.00
            9    220       4.86 0.032      91.46    0.140     77.00        0.731 0.95 1.00
            9    221     152.28 0.025      91.46    0.140     77.00        0.987 0.95 1.00
            9    222       1.89 0.021      91.46    0.140     83.00        0.823 0.95 1.00
            9    223       6.21 0.025      91.46    0.140     87.00        0.789 0.95 1.00
            9    224       0.90 0.015     121.95    0.150     69.00        1.123 0.95 1.00
            9    225       0.27 0.018     121.95    0.150     69.00        1.062 0.95 1.00
            9    226      12.87 0.026      91.46    0.150     69.00        0.824 0.95 1.00
            9    227       0.99 0.027      91.46    0.150     79.00        0.793 0.95 1.00
            9    228       4.32 0.026      91.46    0.150     84.00        0.809 0.95 1.00
            9    229       3.06 0.033      91.46    0.100     55.00        0.591 0.95 1.00
            9    230       3.33 0.020      91.46    0.100     55.00        0.686 0.95 1.00
            9    231      71.73 0.033      91.46    0.100     55.00        0.693 0.95 1.00
            9    232       1.26 0.032      91.46    0.100     70.00        0.592 0.95 1.00
            9    233      26.01 0.024      91.46    0.100     77.00        0.687 0.95 1.00
            9    234       1.17 0.012     121.95    0.100     66.00        0.943 0.95 1.00
            9    235       0.09 0.021      91.46    0.100     66.00        0.669 0.95 1.00
            9    236       1.53 0.025      91.46    0.100     66.00        0.638 0.95 1.00
            9    237      11.79 0.036      91.46    0.100     66.00        0.591 0.95 1.00
            9    238       0.63 0.023      91.46    0.100     77.00        0.652 0.95 1.00
            9    239       5.76 0.019     121.95    0.100     83.00        0.831 0.95 1.00
            9    240      12.42 0.017     121.95    0.050     66.00        0.582 0.95 1.00
            9    241       1.44 0.014     121.95    0.050     66.00        0.596 0.95 1.00
            9    242       4.50 0.036      91.46    0.050     66.00        0.385 0.95 1.00
            9    243       8.55 0.023      91.46    0.050     83.00        0.446 0.95 1.00
            9    244      21.33 0.019     121.95    0.010     92.00        0.243 0.95 1.00
            9    245       0.27 0.015     121.95    0.100     63.29        0.880 0.95 1.00
            9    246       4.14 0.029      91.46    0.100     63.29        0.616 0.95 1.00
            9    247       0.09 0.023      91.46    0.100     74.86        0.651 0.95 1.00
            9    248       0.09 0.022      91.46    0.100     81.09        0.660 0.95 1.00
           10    249       0.27 0.017     121.95    0.140     77.00        1.037 0.95 1.00
           10    250       1.26 0.018     121.95    0.140     77.00        1.021 0.95 1.00
           10    251       0.90 0.022      91.46    0.150     69.00        0.843 0.95 1.00
           10    252      11.25 0.025      91.46    0.150     69.00        0.829 0.95 1.00
           10    253       0.81 0.030      91.46    0.150     79.00        0.768 0.95 1.00
           10    254       0.18 0.062      60.98    0.150     79.00        0.484 0.95 1.00
           10    255       0.36 0.020      91.46    0.150     84.00        0.866 0.95 1.00
           10    256       2.70 0.031      91.46    0.100     55.00        0.600 0.95 1.00
           10    257       2.97 0.023      91.46    0.100     77.00        0.657 0.95 1.00
           10    258       4.68 0.024      91.46    0.100     66.00        0.651 0.95 1.00
           10    259      18.90 0.031      91.46    0.100     66.00        0.626 0.95 1.00
           10    260       1.89 0.044      91.46    0.100     77.00        0.540 0.95 1.00
           10    261       1.08 0.039      91.46    0.100     77.00        0.558 0.95 1.00
           10    262       6.66 0.025      91.46    0.100     83.00        0.647 0.95 1.00
           10    263       4.32 0.030      91.46    0.050     66.00        0.405 0.95 1.00
           10    264       0.45 0.042      91.46    0.050     77.00        0.359 0.95 1.00
           10    265       3.87 0.015     121.95    0.050     83.00        0.588 0.95 1.00
           10    266       1.89 0.014     121.95    0.010     92.00        0.230 0.95 1.00
           10    267       0.27 0.021      91.46    0.100     63.29        0.669 0.95 1.00
           10    268      40.32 0.030      91.46    0.100     63.29        0.660 0.95 1.00
           10    269       8.91 0.034      91.46    0.100     81.09        0.595 0.95 1.00
           11    270       0.63 0.013     121.95    0.140     77.00        1.125 0.95 1.00
           11    271       7.20 0.019     121.95    0.140     77.00        1.019 0.95 1.00
           11    272      53.37 0.030      91.46    0.140     77.00        0.836 0.95 1.00
           11    273       0.09 0.026      91.46    0.140     83.00        0.768 0.95 1.00
           11    274       1.71 0.034      91.46    0.140     87.00        0.713 0.95 1.00
           11    275       8.64 0.023      91.46    0.150     69.00        0.850 0.95 1.00
           11    276       5.49 0.030      91.46    0.150     69.00        0.780 0.95 1.00
           11    277       1.17 0.019     121.95    0.150     79.00        1.048 0.95 1.00
           11    278       0.27 0.013     121.95    0.150     79.00        1.171 0.95 1.00
           11    279       2.97 0.030      91.46    0.150     84.00        0.774 0.95 1.00
           11    280       0.18 0.015     121.95    0.100     35.00        0.880 0.95 1.00
           11    281      49.95 0.029      91.46    0.100     55.00        0.702 0.95 1.00
           11    282       2.70 0.033      91.46    0.100     70.00        0.591 0.95 1.00
           11    283       8.64 0.021      91.46    0.100     77.00        0.689 0.95 1.00
           11    284       1.89 0.016     121.95    0.100     66.00        0.867 0.95 1.00
           11    285       2.79 0.027      91.46    0.100     66.00        0.628 0.95 1.00
           11    286       8.64 0.029      91.46    0.100     66.00        0.627 0.95 1.00
           11    287       0.90 0.023      91.46    0.100     77.00        0.653 0.95 1.00
           11    288       1.53 0.030      91.46    0.100     77.00        0.605 0.95 1.00
           11    289       5.40 0.024      91.46    0.100     83.00        0.656 0.95 1.00
           11    290       0.27 0.007     121.95    0.050     66.00        0.730 0.95 1.00
           11    291       1.98 0.026      91.46    0.050     66.00        0.419 0.95 1.00
           11    292       1.08 0.027      91.46    0.050     77.00        0.412 0.95 1.00
           11    293       4.41 0.023      91.46    0.050     83.00        0.441 0.95 1.00
           11    294       0.54 0.011     121.95    0.010     92.00        0.244 0.95 1.00
           11    295       0.81 0.028      91.46    0.100     63.29        0.616 0.95 1.00
           11    296       0.81 0.015     121.95    0.100     63.29        0.882 0.95 1.00
           11    297       0.90 0.035      91.46    0.100     63.29        0.576 0.95 1.00
           12    298       4.77 0.022      91.46    0.140     77.00        0.815 0.95 1.00
           12    299      56.43 0.030      91.46    0.140     77.00        0.805 0.95 1.00
           12    300       1.89 0.037      91.46    0.140     83.00        0.694 0.95 1.00
           12    301       2.25 0.040      91.46    0.140     83.00        0.679 0.95 1.00
           12    302       3.60 0.045      91.46    0.140     87.00        0.657 0.95 1.00
           12    303       0.90 0.018     121.95    0.150     69.00        1.063 0.95 1.00
           12    304       3.15 0.036      91.46    0.150     69.00        0.731 0.95 1.00
           12    305      28.62 0.039      91.46    0.150     69.00        0.747 0.95 1.00
           12    306       1.08 0.042      91.46    0.150     79.00        0.695 0.95 1.00
           12    307       0.81 0.019     121.95    0.150     79.00        1.046 0.95 1.00
           12    308       7.83 0.038      91.46    0.150     84.00        0.726 0.95 1.00
           12    309       4.68 0.023      91.46    0.100     55.00        0.659 0.95 1.00
           12    310       1.80 0.034      91.46    0.100     55.00        0.582 0.95 1.00
           12    311       3.06 0.045      91.46    0.100     55.00        0.537 0.95 1.00
           12    312       2.61 0.058      60.98    0.100     70.00        0.391 0.95 1.00
           12    313       0.63 0.018     121.95    0.100     70.00        0.834 0.95 1.00
           12    314      13.86 0.028      91.46    0.100     77.00        0.634 0.95 1.00
           12    315       0.18 0.053      60.98    0.100     83.00        0.398 0.95 1.00
           12    316       0.36 0.017     121.95    0.050     66.00        0.559 0.95 1.00
           12    317       0.27 0.016     121.95    0.050     66.00        0.569 0.95 1.00
           12    318       0.63 0.033      91.46    0.050     66.00        0.387 0.95 1.00
           12    319       0.09 0.021      91.46    0.050     77.00        0.441 0.95 1.00
           12    320       0.45 0.025      91.46    0.050     77.00        0.420 0.95 1.00
           12    321       3.15 0.028      91.46    0.050     83.00        0.410 0.95 1.00
           12    322       5.76 0.017     121.95    0.010     92.00        0.222 0.95 1.00
           12    323       0.36 0.030      91.46    0.100     63.29        0.602 0.95 1.00
           12    324      11.43 0.027      91.46    0.100     63.29        0.637 0.95 1.00
           12    325       0.63 0.032      91.46    0.100     74.86        0.591 0.95 1.00
           12    326       3.78 0.024      91.46    0.100     74.86        0.649 0.95 1.00
           12    327       0.90 0.019     121.95    0.100     81.09        0.821 0.95 1.00
           13    328       2.43 0.043      91.46    0.140     77.00        0.666 0.95 1.00
           13    329      53.01 0.038      91.46    0.140     77.00        0.771 0.95 1.00
           13    330       2.97 0.039      91.46    0.140     83.00        0.686 0.95 1.00
           13    331       1.44 0.036      91.46    0.140     83.00        0.700 0.95 1.00
           13    332       0.54 0.070      60.98    0.140     87.00        0.449 0.95 1.00
           13    333       3.96 0.044      91.46    0.150     69.00        0.692 0.95 1.00
           13    334       2.16 0.041      91.46    0.150     69.00        0.703 0.95 1.00
           13    335       1.17 0.050      91.46    0.150     79.00        0.660 0.95 1.00
           13    336       0.72 0.048      91.46    0.150     79.00        0.667 0.95 1.00
           13    337       0.09 0.025      91.46    0.150     84.00        0.810 0.95 1.00
           13    338      13.23 0.034      91.46    0.100     55.00        0.604 0.95 1.00
           13    339      23.13 0.037      91.46    0.100     55.00        0.606 0.95 1.00
           13    340       5.13 0.048      91.46    0.100     70.00        0.533 0.95 1.00
           13    341       0.27 0.035      91.46    0.100     77.00        0.574 0.95 1.00
           13    342       1.89 0.031      91.46    0.100     66.00        0.600 0.95 1.00
           13    343       9.45 0.037      91.46    0.100     66.00        0.583 0.95 1.00
           13    344       4.59 0.043      91.46    0.100     66.00        0.549 0.95 1.00
           13    345       5.49 0.042      91.46    0.100     77.00        0.555 0.95 1.00
           13    346       2.16 0.025      91.46    0.100     77.00        0.640 0.95 1.00
           13    347       3.15 0.028      91.46    0.100     83.00        0.621 0.95 1.00
           13    348       7.56 0.035      91.46    0.050     66.00        0.394 0.95 1.00
           13    349       1.80 0.056      60.98    0.050     66.00        0.262 0.95 1.00
           13    350       0.36 0.040      91.46    0.050     77.00        0.365 0.95 1.00
           13    351       0.09 0.037      91.46    0.050     77.00        0.372 0.95 1.00
           13    352       0.18 0.033      91.46    0.050     83.00        0.386 0.95 1.00
           13    353       3.06 0.029      91.46    0.010     92.00        0.160 0.95 1.00
           13    354       0.99 0.012     121.95    0.100     63.29        0.942 0.95 1.00
           13    355       5.31 0.037      91.46    0.100     63.29        0.576 0.95 1.00
           13    356      11.07 0.049      91.46    0.100     63.29        0.540 0.95 1.00
           13    357       1.98 0.017     121.95    0.100     74.86        0.851 0.95 1.00
           13    358       0.54 0.022      91.46    0.100     81.09        0.661 0.95 1.00
           14    359      20.79 0.028      91.46    0.140     77.00        0.784 0.95 1.00
           14    360       2.70 0.029      91.46    0.140     77.00        0.748 0.95 1.00
           14    361       6.93 0.036      91.46    0.140     77.00        0.709 0.95 1.00
           14    362     111.96 0.028      91.46    0.140     77.00        0.898 0.95 1.00
           14    363       4.14 0.031      91.46    0.140     83.00        0.736 0.95 1.00
           14    364      10.80 0.040      91.46    0.140     83.00        0.693 0.95 1.00
           14    365       1.89 0.013     121.95    0.140     83.00        1.127 0.95 1.00
           14    366       9.90 0.028      91.46    0.140     87.00        0.768 0.95 1.00
           14    367       8.82 0.033      91.46    0.150     69.00        0.761 0.95 1.00
           14    368       3.51 0.025      91.46    0.150     69.00        0.816 0.95 1.00
           14    369      13.23 0.039      91.46    0.150     69.00        0.731 0.95 1.00
           14    370      34.20 0.033      91.46    0.150     69.00        0.797 0.95 1.00
           14    371       7.47 0.040      91.46    0.150     79.00        0.717 0.95 1.00
           14    372      19.17 0.031      91.46    0.150     84.00        0.790 0.95 1.00
           14    373       0.27 0.024      91.46    0.100     55.00        0.643 0.95 1.00
           14    374       2.07 0.021      91.46    0.100     55.00        0.673 0.95 1.00
           14    375       1.80 0.039      91.46    0.100     55.00        0.559 0.95 1.00
           14    376       8.82 0.032      91.46    0.100     55.00        0.605 0.95 1.00
           14    377       0.45 0.007     121.95    0.100     70.00        1.106 0.95 1.00
           14    378      12.33 0.042      91.46    0.100     70.00        0.565 0.95 1.00
           14    379       6.57 0.035      91.46    0.100     77.00        0.586 0.95 1.00
           14    380       0.72 0.027      91.46    0.100     66.00        0.622 0.95 1.00
           14    381       0.45 0.044      91.46    0.100     66.00        0.537 0.95 1.00
           14    382       2.70 0.042      91.46    0.100     66.00        0.549 0.95 1.00
           14    383       1.26 0.056      60.98    0.100     77.00        0.394 0.95 1.00
           14    384       2.07 0.033      91.46    0.100     83.00        0.588 0.95 1.00
           14    385       1.08 0.034      91.46    0.050     66.00        0.384 0.95 1.00
           14    386       8.91 0.024      91.46    0.050     66.00        0.440 0.95 1.00
           14    387       3.51 0.033      91.46    0.050     66.00        0.392 0.95 1.00
           14    388       4.14 0.040      91.46    0.050     66.00        0.372 0.95 1.00
           14    389       0.45 0.051      60.98    0.050     77.00        0.266 0.95 1.00
           14    390      10.26 0.024      91.46    0.050     83.00        0.442 0.95 1.00
           14    391      31.68 0.027      91.46    0.010     92.00        0.205 0.95 1.00
           14    392       0.09 0.053      60.98    0.100     63.29        0.397 0.95 1.00
           14    393       0.63 0.011     121.95    0.100     63.29        0.966 0.95 1.00
           14    394      10.17 0.022      91.46    0.100     63.29        0.677 0.95 1.00
           14    395       0.09 0.041      91.46    0.100     74.86        0.547 0.95 1.00
           14    396       3.96 0.027      91.46    0.100     81.09        0.628 0.95 1.00
           15    397       0.99 0.013     121.95    0.140     77.00        1.123 0.95 1.00
           15    398       3.42 0.035      91.46    0.140     77.00        0.704 0.95 1.00
           15    399      27.45 0.030      91.46    0.140     77.00        0.749 0.95 1.00
           15    400       9.54 0.041      91.46    0.140     83.00        0.675 0.95 1.00
           15    401       0.18 0.019     121.95    0.140     83.00        1.002 0.95 1.00
           15    402       1.26 0.016     121.95    0.150     69.00        1.100 0.95 1.00
           15    403       5.94 0.026      91.46    0.150     69.00        0.803 0.95 1.00
           15    404       5.31 0.021      91.46    0.150     79.00        0.856 0.95 1.00
           15    405       0.54 0.025      91.46    0.150     79.00        0.810 0.95 1.00
           15    406       7.47 0.027      91.46    0.100     55.00        0.624 0.95 1.00
           15    407       0.99 0.054      60.98    0.100     55.00        0.396 0.95 1.00
           15    408       0.36 0.038      91.46    0.100     70.00        0.560 0.95 1.00
           15    409      17.01 0.028      91.46    0.100     66.00        0.622 0.95 1.00
           15    410       3.69 0.034      91.46    0.100     66.00        0.581 0.95 1.00
           15    411       7.47 0.030      91.46    0.100     77.00        0.605 0.95 1.00
           15    412       0.27 0.019     121.95    0.100     77.00        0.819 0.95 1.00
           15    413       1.89 0.019     121.95    0.050     66.00        0.541 0.95 1.00
           15    414       0.27 0.013     121.95    0.050     66.00        0.606 0.95 1.00
           15    415       0.72 0.032      91.46    0.050     77.00        0.389 0.95 1.00
           15    416       4.05 0.032      91.46    0.010     92.00        0.151 0.95 1.00
           15    417       0.63 0.018     121.95    0.100     63.29        0.833 0.95 1.00
           15    418       0.99 0.036      91.46    0.100     63.29        0.570 0.95 1.00
           16    419       1.17 0.042      91.46    0.140     67.00        0.668 0.95 1.00
           16    420       0.27 0.032      91.46    0.140     67.00        0.722 0.95 1.00
           16    421       0.90 0.040      91.46    0.140     77.00        0.677 0.95 1.00
           16    422       1.71 0.032      91.46    0.140     77.00        0.726 0.95 1.00
           16    423       9.18 0.022      91.46    0.140     77.00        0.829 0.95 1.00
           16    424       1.17 0.037      91.46    0.140     83.00        0.694 0.95 1.00
           16    425       1.62 0.035      91.46    0.140     87.00        0.707 0.95 1.00
           16    426       3.51 0.035      91.46    0.150     49.00        0.741 0.95 1.00
           16    427       5.76 0.035      91.46    0.150     49.00        0.746 0.95 1.00
           16    428       2.16 0.035      91.46    0.150     69.00        0.738 0.95 1.00
           16    429       0.72 0.027      91.46    0.150     69.00        0.793 0.95 1.00
           16    430       1.35 0.026      91.46    0.150     69.00        0.804 0.95 1.00
           16    431      11.88 0.038      91.46    0.150     69.00        0.742 0.95 1.00
           16    432       0.09 0.033      91.46    0.150     79.00        0.745 0.95 1.00
           16    433       4.32 0.034      91.46    0.150     84.00        0.750 0.95 1.00
           16    434       0.45 0.032      91.46    0.100     35.00        0.591 0.95 1.00
           16    435       0.81 0.040      91.46    0.100     55.00        0.554 0.95 1.00
           16    436       0.63 0.021      91.46    0.100     55.00        0.671 0.95 1.00
           16    437       1.26 0.060      60.98    0.100     55.00        0.387 0.95 1.00
           16    438       0.99 0.042      91.46    0.100     70.00        0.546 0.95 1.00
           16    439       0.90 0.091      60.98    0.100     70.00        0.341 0.95 1.00
           16    440       1.26 0.029      91.46    0.100     77.00        0.611 0.95 1.00
           16    441       0.54 0.037      91.46    0.100     45.00        0.566 0.95 1.00
           16    442       0.45 0.046      91.46    0.100     45.00        0.530 0.95 1.00
           16    443       0.54 0.045      91.46    0.100     66.00        0.534 0.95 1.00
           16    444       1.17 0.023      91.46    0.100     66.00        0.654 0.95 1.00
           16    445       2.16 0.049      91.46    0.100     66.00        0.525 0.95 1.00
           16    446       2.34 0.052      60.98    0.100     77.00        0.406 0.95 1.00
           16    447       5.04 0.030      91.46    0.100     83.00        0.614 0.95 1.00
           16    448       1.26 0.029      91.46    0.050     45.00        0.404 0.95 1.00
           16    449       1.89 0.033      91.46    0.050     45.00        0.391 0.95 1.00
           16    450       7.65 0.008     121.95    0.050     66.00        0.719 0.95 1.00
           16    451       0.72 0.070      60.98    0.050     77.00        0.243 0.95 1.00
           16    452       2.34 0.043      91.46    0.050     83.00        0.363 0.95 1.00
           16    453       1.17 0.034      91.46    0.100     41.93        0.582 0.95 1.00
           16    454       3.51 0.051      60.98    0.100     41.93        0.411 0.95 1.00
           16    455       0.90 0.028      91.46    0.100     63.29        0.616 0.95 1.00
           16    456       0.18 0.020     121.95    0.100     63.29        0.807 0.95 1.00
           16    457       0.36 0.031      91.46    0.100     63.29        0.596 0.95 1.00
           16    458       4.86 0.031      91.46    0.100     63.29        0.608 0.95 1.00
           16    459       0.18 0.056      60.98    0.100     74.86        0.391 0.95 1.00
           16    460       0.81 0.032      91.46    0.100     81.09        0.592 0.95 1.00
           17    461       1.44 0.042      91.46    0.140     77.00        0.667 0.95 1.00
           17    462       0.09 0.034      91.46    0.140     77.00        0.708 0.95 1.00
           17    463      53.91 0.024      91.46    0.140     77.00        0.850 0.95 1.00
           17    464       0.36 0.043      91.46    0.140     83.00        0.661 0.95 1.00
           17    465       1.80 0.031      91.46    0.140     87.00        0.731 0.95 1.00
           17    466       1.89 0.029      91.46    0.150     69.00        0.777 0.95 1.00
           17    467       0.09 0.041      91.46    0.150     84.00        0.698 0.95 1.00
           17    468       0.36 0.029      91.46    0.100     55.00        0.608 0.95 1.00
           17    469       0.09 0.016     121.95    0.100     55.00        0.862 0.95 1.00
           17    470       0.09 0.024      91.46    0.100     55.00        0.643 0.95 1.00
           17    471       2.97 0.024      91.46    0.100     55.00        0.647 0.95 1.00
           17    472       1.62 0.019     121.95    0.100     77.00        0.822 0.95 1.00
           17    473       3.15 0.030      91.46    0.100     66.00        0.606 0.95 1.00
           17    474       1.44 0.016     121.95    0.100     66.00        0.865 0.95 1.00
           17    475       1.98 0.037      91.46    0.100     66.00        0.568 0.95 1.00
           17    476       4.05 0.038      91.46    0.100     66.00        0.566 0.95 1.00
           17    477       1.08 0.033      91.46    0.100     77.00        0.586 0.95 1.00
           17    478       1.71 0.025      91.46    0.100     83.00        0.638 0.95 1.00
           17    479       1.71 0.019     121.95    0.050     66.00        0.543 0.95 1.00
           17    480       0.81 0.014     121.95    0.050     66.00        0.594 0.95 1.00
           17    481       0.36 0.025      91.46    0.050     77.00        0.419 0.95 1.00
           17    482       6.84 0.020      91.46    0.050     83.00        0.458 0.95 1.00
           17    483       2.43 0.044      91.46    0.010     92.00        0.139 0.95 1.00
           17    484       1.44 0.021      91.46    0.100     63.29        0.671 0.95 1.00
           18    485       1.80 0.029      91.46    0.140     77.00        0.748 0.95 1.00
           18    486       0.36 0.037      91.46    0.140     77.00        0.692 0.95 1.00
           18    487       4.41 0.028      91.46    0.140     77.00        0.762 0.95 1.00
           18    488     134.91 0.032      91.46    0.140     77.00        0.946 0.95 1.00
           18    489       2.88 0.053      60.98    0.140     83.00        0.494 0.95 1.00
           18    490       0.27 0.021      91.46    0.140     83.00        0.819 0.95 1.00
           18    491       5.67 0.033      91.46    0.140     87.00        0.728 0.95 1.00
           18    492       0.18 0.014     121.95    0.150     69.00        1.145 0.95 1.00
           18    493       8.64 0.034      91.46    0.150     69.00        0.758 0.95 1.00
           18    494      27.72 0.035      91.46    0.150     69.00        0.788 0.95 1.00
           18    495       0.72 0.065      60.98    0.150     79.00        0.479 0.95 1.00
           18    496       1.35 0.029      91.46    0.150     79.00        0.778 0.95 1.00
           18    497       8.19 0.027      91.46    0.150     84.00        0.810 0.95 1.00
           18    498       3.42 0.035      91.46    0.100     55.00        0.583 0.95 1.00
           18    499       8.28 0.029      91.46    0.100     55.00        0.626 0.95 1.00
           18    500       0.18 0.021      91.46    0.100     55.00        0.669 0.95 1.00
           18    501      49.50 0.038      91.46    0.100     55.00        0.653 0.95 1.00
           18    502       1.35 0.037      91.46    0.100     70.00        0.568 0.95 1.00
           18    503       4.50 0.049      91.46    0.100     70.00        0.530 0.95 1.00
           18    504       8.28 0.033      91.46    0.100     77.00        0.603 0.95 1.00
           18    505       8.73 0.010     121.95    0.100     66.00        1.013 0.95 1.00
           18    506       2.97 0.028      91.46    0.100     66.00        0.621 0.95 1.00
           18    507      19.98 0.040      91.46    0.100     66.00        0.593 0.95 1.00
           18    508       2.88 0.046      91.46    0.100     77.00        0.536 0.95 1.00
           18    509       2.61 0.038      91.46    0.100     77.00        0.567 0.95 1.00
           18    510      19.98 0.025      91.46    0.100     83.00        0.677 0.95 1.00
           18    511       9.45 0.015     121.95    0.050     66.00        0.602 0.95 1.00
           18    512       1.71 0.021      91.46    0.050     66.00        0.446 0.95 1.00
           18    513       0.99 0.033      91.46    0.050     66.00        0.388 0.95 1.00
           18    514       0.09 0.028      91.46    0.050     77.00        0.405 0.95 1.00
           18    515       1.62 0.019     121.95    0.050     77.00        0.545 0.95 1.00
           18    516       2.61 0.021      91.46    0.050     83.00        0.448 0.95 1.00
           18    517       5.58 0.036      91.46    0.010     92.00        0.157 0.95 1.00
           18    518       0.54 0.024      91.46    0.100     63.29        0.644 0.95 1.00
           18    519       2.16 0.012     121.95    0.100     63.29        0.946 0.95 1.00
           18    520       2.79 0.035      91.46    0.100     63.29        0.581 0.95 1.00
           18    521      10.53 0.031      91.46    0.100     63.29        0.619 0.95 1.00
           18    522       1.71 0.040      91.46    0.100     74.86        0.556 0.95 1.00
           18    523       0.54 0.034      91.46    0.100     74.86        0.580 0.95 1.00
           18    524       4.14 0.019     121.95    0.100     81.09        0.829 0.95 1.00
           19    525       2.16 0.020      91.46    0.140     77.00        0.835 0.95 1.00
           19    526       1.08 0.045      91.46    0.140     77.00        0.654 0.95 1.00
           19    527       0.81 0.010     121.95    0.140     77.00        1.217 0.95 1.00
           19    528      43.83 0.023      91.46    0.140     77.00        0.869 0.95 1.00
           19    529       0.18 0.066      60.98    0.140     83.00        0.456 0.95 1.00
           19    530       0.63 0.020      91.46    0.140     87.00        0.832 0.95 1.00
           19    531       0.09 0.016     121.95    0.150     69.00        1.100 0.95 1.00
           19    532       1.98 0.018     121.95    0.150     69.00        1.066 0.95 1.00
           19    533      11.43 0.022      91.46    0.100     55.00        0.682 0.95 1.00
           19    534       0.09 0.030      91.46    0.100     55.00        0.601 0.95 1.00
           19    535       2.34 0.018     121.95    0.100     55.00        0.838 0.95 1.00
           19    536      25.11 0.026      91.46    0.100     55.00        0.672 0.95 1.00
           19    537       7.47 0.015     121.95    0.100     77.00        0.894 0.95 1.00
           19    538       1.26 0.030      91.46    0.100     66.00        0.604 0.95 1.00
           19    539       1.17 0.020     121.95    0.100     66.00        0.809 0.95 1.00
           19    540       2.97 0.022      91.46    0.100     66.00        0.666 0.95 1.00
           19    541       0.90 0.025      91.46    0.100     77.00        0.637 0.95 1.00
           19    542       0.09 0.023      91.46    0.100     77.00        0.651 0.95 1.00
           19    543       0.09 0.010     121.95    0.100     83.00        0.993 0.95 1.00
           19    544       2.52 0.044      91.46    0.050     66.00        0.359 0.95 1.00
           19    545       1.08 0.036      91.46    0.050     66.00        0.378 0.95 1.00
           19    546       0.09 0.046      91.46    0.050     77.00        0.349 0.95 1.00
           19    547       0.54 0.034      91.46    0.050     77.00        0.383 0.95 1.00
           19    548       0.81 0.012     121.95    0.050     83.00        0.622 0.95 1.00
           19    549       0.09 0.013     121.95    0.100     63.29        0.918 0.95 1.00
           19    550       1.17 0.018     121.95    0.100     63.29        0.835 0.95 1.00
           19    551       0.81 0.024      91.46    0.100     74.86        0.645 0.95 1.00
           19    552       0.90 0.026      91.46    0.100     81.09        0.630 0.95 1.00
           20    553       2.97 0.022      91.46    0.140     77.00        0.812 0.95 1.00
           20    554       0.72 0.013     121.95    0.140     77.00        1.124 0.95 1.00
           20    555       1.44 0.014     121.95    0.140     77.00        1.101 0.95 1.00
           20    556      34.92 0.029      91.46    0.140     77.00        0.787 0.95 1.00
           20    557      12.51 0.041      91.46    0.140     83.00        0.688 0.95 1.00
           20    558       3.33 0.021      91.46    0.140     87.00        0.824 0.95 1.00
           20    559       3.42 0.041      91.46    0.150     69.00        0.704 0.95 1.00
           20    560       1.26 0.032      91.46    0.150     69.00        0.754 0.95 1.00
           20    561      12.06 0.038      91.46    0.150     69.00        0.731 0.95 1.00
           20    562      29.43 0.050      60.98    0.150     79.00        0.554 0.95 1.00
           20    563       9.00 0.035      91.46    0.150     84.00        0.745 0.95 1.00
           20    564       0.09 0.035      91.46    0.100     66.00        0.574 0.95 1.00
           20    565       0.27 0.022      91.46    0.100     66.00        0.660 0.95 1.00
           20    566       0.45 0.044      91.46    0.100     66.00        0.537 0.95 1.00
           20    567       2.70 0.059      60.98    0.100     77.00        0.389 0.95 1.00
           20    568       1.71 0.033      91.46    0.100     83.00        0.587 0.95 1.00
           20    569       1.44 0.018     121.95    0.050     66.00        0.552 0.95 1.00
           20    570       1.17 0.052      60.98    0.050     77.00        0.266 0.95 1.00
           20    571       4.95 0.036      91.46    0.050     83.00        0.383 0.95 1.00
           20    572       7.02 0.022      91.46    0.010     92.00        0.177 0.95 1.00
           20    573       0.09 0.034      91.46    0.100     74.86        0.579 0.95 1.00
           20    574       0.27 0.027      91.46    0.100     81.09        0.621 0.95 1.00
           21    575       0.18 0.019     121.95    0.140     77.00        1.002 0.95 1.00
           21    576      43.20 0.032      91.46    0.140     77.00        0.764 0.95 1.00
           21    577       2.43 0.026      91.46    0.140     87.00        0.771 0.95 1.00
           21    578       7.83 0.030      91.46    0.150     69.00        0.776 0.95 1.00
           21    579       4.05 0.028      91.46    0.150     84.00        0.788 0.95 1.00
           21    580       0.99 0.029      91.46    0.100     66.00        0.608 0.95 1.00
           21    581       1.62 0.017     121.95    0.100     83.00        0.849 0.95 1.00
           21    582       1.53 0.010     121.95    0.050     66.00        0.657 0.95 1.00
           21    583       3.60 0.036      91.46    0.050     66.00        0.380 0.95 1.00
           21    584       0.90 0.029      91.46    0.050     77.00        0.402 0.95 1.00
           21    585       3.87 0.020     121.95    0.050     83.00        0.537 0.95 1.00
           21    586       0.36 0.012     121.95    0.010     92.00        0.237 0.95 1.00
           21    587      13.14 0.033      91.46    0.100     63.29        0.599 0.95 1.00
           21    588       0.09 0.065      60.98    0.100     81.09        0.374 0.95 1.00
           22    589       0.27 0.018     121.95    0.140     67.00        1.022 0.95 1.00
           22    590      14.85 0.032      91.46    0.140     77.00        0.846 0.95 1.00
           22    591       2.52 0.029      91.46    0.140     77.00        0.769 0.95 1.00
           22    592      31.95 0.028      91.46    0.140     77.00        0.995 0.95 1.00
           22    593     112.23 0.034      91.46    0.140     77.00        1.442 0.95 1.00
           22    594       0.81 0.048      91.46    0.140     83.00        0.648 0.95 1.00
           22    595      20.88 0.040      91.46    0.140     83.00        0.843 0.95 1.00
           22    596       6.93 0.033      91.46    0.140     83.00        0.779 0.95 1.00
           22    597       3.87 0.028      91.46    0.140     87.00        0.789 0.95 1.00
           22    598       0.18 0.005     121.95    0.140     87.00        1.498 0.95 1.00
           22    599       6.75 0.027      91.46    0.150     69.00        0.854 0.95 1.00
           22    600       0.18 0.005     121.95    0.150     69.00        1.561 0.95 1.00
           22    601       1.08 0.035      91.46    0.150     69.00        0.744 0.95 1.00
           22    602      16.56 0.036      91.46    0.150     69.00        0.863 0.95 1.00
           22    603       0.09 0.033      91.46    0.150     79.00        0.746 0.95 1.00
           22    604      10.80 0.063      60.98    0.150     79.00        0.575 0.95 1.00
           22    605       1.08 0.020      91.46    0.150     79.00        0.878 0.95 1.00
           22    606       2.70 0.040      91.46    0.150     84.00        0.731 0.95 1.00
           22    607       2.07 0.036      91.46    0.100     55.00        0.591 0.95 1.00
           22    608       4.68 0.013     121.95    0.100     55.00        0.963 0.95 1.00
           22    609      10.62 0.027      91.46    0.100     55.00        0.713 0.95 1.00
           22    610      18.27 0.019     121.95    0.100     55.00        0.969 0.95 1.00
           22    611       0.18 0.015     121.95    0.100     70.00        0.882 0.95 1.00
           22    612       6.21 0.023      91.46    0.100     70.00        0.709 0.95 1.00
           22    613      14.67 0.029      91.46    0.100     77.00        0.731 0.95 1.00
           22    614       0.36 0.043      91.46    0.100     66.00        0.544 0.95 1.00
           22    615       2.34 0.019     121.95    0.100     66.00        0.844 0.95 1.00
           22    616      10.26 0.030      91.46    0.100     66.00        0.691 0.95 1.00
           22    617       5.13 0.037      91.46    0.100     66.00        0.613 0.95 1.00
           22    618       0.09 0.042      91.46    0.100     77.00        0.544 0.95 1.00
           22    619       3.60 0.049      91.46    0.100     77.00        0.555 0.95 1.00
           22    620       3.69 0.032      91.46    0.100     77.00        0.626 0.95 1.00
           22    621       3.96 0.041      91.46    0.100     83.00        0.586 0.95 1.00
           22    622       3.87 0.045      91.46    0.050     66.00        0.389 0.95 1.00
           22    623      60.48 0.009     121.95    0.050     66.00        1.103 0.95 1.00
           22    624      20.25 0.018     121.95    0.050     66.00        0.713 0.95 1.00
           22    625       7.74 0.030      91.46    0.050     66.00        0.467 0.95 1.00
           22    626       6.12 0.057      60.98    0.050     77.00        0.314 0.95 1.00
           22    627       6.66 0.027      91.46    0.050     77.00        0.471 0.95 1.00
           22    628      14.85 0.024      91.46    0.050     83.00        0.549 0.95 1.00
           22    629       0.36 0.007     121.95    0.050     83.00        0.734 0.95 1.00
           22    630      18.72 0.015     121.95    0.010     92.00        0.374 0.95 1.00
           22    631       0.18 0.034      91.46    0.100     63.29        0.581 0.95 1.00
           22    632       0.45 0.012     121.95    0.100     63.29        0.946 0.95 1.00
           22    633       0.90 0.033      91.46    0.100     63.29        0.595 0.95 1.00
           22    634       5.58 0.025      91.46    0.100     63.29        0.688 0.95 1.00
           22    635       0.09 0.015     121.95    0.100     74.86        0.880 0.95 1.00
           22    636       1.17 0.016     121.95    0.100     74.86        0.876 0.95 1.00
           22    637       0.36 0.025      91.46    0.100     81.09        0.639 0.95 1.00
           23    638       3.60 0.036      91.46    0.140     77.00        0.699 0.95 1.00
           23    639      39.24 0.031      91.46    0.140     77.00        0.749 0.95 1.00
           23    640       5.22 0.033      91.46    0.140     83.00        0.718 0.95 1.00
           23    641       5.31 0.025      91.46    0.150     69.00        0.813 0.95 1.00
           23    642      13.68 0.030      91.46    0.150     69.00        0.775 0.95 1.00
           23    643       2.61 0.039      91.46    0.150     79.00        0.710 0.95 1.00
           23    644       0.09 0.024      91.46    0.150     79.00        0.819 0.95 1.00
           23    645       0.54 0.041      91.46    0.100     55.00        0.548 0.95 1.00
           23    646       5.31 0.023      91.46    0.100     66.00        0.654 0.95 1.00
           23    647       3.06 0.031      91.46    0.100     66.00        0.597 0.95 1.00
           23    648       0.27 0.027      91.46    0.100     77.00        0.620 0.95 1.00
           23    649       1.98 0.026      91.46    0.050     66.00        0.415 0.95 1.00
           23    650       1.08 0.039      91.46    0.050     66.00        0.367 0.95 1.00
           23    651       2.97 0.030      91.46    0.010     92.00        0.153 0.95 1.00
           23    652       0.18 0.017     121.95    0.100     63.29        0.847 0.95 1.00
           23    653       0.54 0.032      91.46    0.100     74.86        0.590 0.95 1.00
           24    654       3.69 0.026      91.46    0.140     77.00        0.777 0.95 1.00
           24    655       0.27 0.022      91.46    0.140     77.00        0.808 0.95 1.00
           24    656       1.44 0.018     121.95    0.140     77.00        1.023 0.95 1.00
           24    657      18.27 0.023      91.46    0.140     77.00        0.836 0.95 1.00
           24    658       3.60 0.016     121.95    0.140     83.00        1.064 0.95 1.00
           24    659       1.98 0.018     121.95    0.140     83.00        1.024 0.95 1.00
           24    660       1.71 0.023      91.46    0.140     87.00        0.801 0.95 1.00
           24    661       0.18 0.007     121.95    0.150     69.00        1.410 0.95 1.00
           24    662       1.35 0.025      91.46    0.150     69.00        0.813 0.95 1.00
           24    663      14.76 0.031      91.46    0.150     69.00        0.792 0.95 1.00
           24    664       1.80 0.026      91.46    0.150     79.00        0.805 0.95 1.00
           24    665       9.72 0.037      91.46    0.150     79.00        0.742 0.95 1.00
           24    666       1.08 0.007     121.95    0.150     79.00        1.412 0.95 1.00
           24    667       4.41 0.031      91.46    0.150     84.00        0.770 0.95 1.00
           24    668       1.35 0.013     121.95    0.100     55.00        0.922 0.95 1.00
           24    669       4.86 0.021      91.46    0.100     55.00        0.681 0.95 1.00
           24    670      10.53 0.050      60.98    0.100     55.00        0.429 0.95 1.00
           24    671      17.91 0.039      91.46    0.100     55.00        0.594 0.95 1.00
           24    672       0.18 0.006     121.95    0.100     70.00        1.158 0.95 1.00
           24    673       3.96 0.052      60.98    0.100     70.00        0.410 0.95 1.00
           24    674       2.07 0.017     121.95    0.100     70.00        0.852 0.95 1.00
           24    675      14.22 0.034      91.46    0.100     77.00        0.610 0.95 1.00
           24    676       1.26 0.039      91.46    0.100     66.00        0.559 0.95 1.00
           24    677       0.54 0.030      91.46    0.100     77.00        0.603 0.95 1.00
           24    678       1.17 0.026      91.46    0.100     83.00        0.631 0.95 1.00
           24    679      11.79 0.020     121.95    0.050     66.00        0.559 0.95 1.00
           24    680       0.99 0.060      60.98    0.050     66.00        0.255 0.95 1.00
           24    681       0.27 0.041      91.46    0.050     66.00        0.362 0.95 1.00
           24    682       2.43 0.042      91.46    0.050     77.00        0.365 0.95 1.00
           24    683       0.09 0.011     121.95    0.050     77.00        0.637 0.95 1.00
           24    684       6.75 0.027      91.46    0.050     83.00        0.426 0.95 1.00
           24    685       7.47 0.019     121.95    0.010     92.00        0.224 0.95 1.00
           24    686       2.79 0.024      91.46    0.100     63.29        0.650 0.95 1.00
           24    687       0.09 0.019     121.95    0.100     74.86        0.819 0.95 1.00
           24    688       2.07 0.009     121.95    0.100     74.86        1.030 0.95 1.00
           24    689       1.62 0.014     121.95    0.100     81.09        0.902 0.95 1.00
           25    690       1.44 0.034      91.46    0.140     77.00        0.709 0.95 1.00
           25    691      52.47 0.029      91.46    0.140     77.00        0.764 0.95 1.00
           25    692       2.34 0.033      91.46    0.140     83.00        0.716 0.95 1.00
           25    693       1.35 0.032      91.46    0.140     87.00        0.722 0.95 1.00
           25    694       0.36 0.037      91.46    0.150     69.00        0.720 0.95 1.00
           25    695       5.22 0.032      91.46    0.150     69.00        0.754 0.95 1.00
           25    696       0.45 0.031      91.46    0.150     79.00        0.759 0.95 1.00
           25    697       0.27 0.016     121.95    0.150     84.00        1.100 0.95 1.00
           25    698       0.54 0.018     121.95    0.100     55.00        0.833 0.95 1.00
           25    699       2.25 0.037      91.46    0.100     55.00        0.565 0.95 1.00
           25    700       6.30 0.032      91.46    0.100     55.00        0.593 0.95 1.00
           25    701       0.27 0.027      91.46    0.100     70.00        0.620 0.95 1.00
           25    702       1.44 0.041      91.46    0.100     77.00        0.548 0.95 1.00
           25    703       0.09 0.023      91.46    0.100     66.00        0.651 0.95 1.00
           25    704       1.98 0.037      91.46    0.100     66.00        0.565 0.95 1.00
           25    705       4.32 0.040      91.46    0.100     66.00        0.554 0.95 1.00
           25    706       3.96 0.039      91.46    0.100     83.00        0.558 0.95 1.00
[...]
           63        0.45 0.007     1.33      0.0000 0.014       0.45 0.007     2.74     0.30      0.0000 0.014
           64        0.43 0.000     0.56      0.0000 0.014       0.43 0.000    20.81     1.03      0.0000 0.014
           65        2.10 0.002     2.33      0.0000 0.014       2.10 0.002     5.80     0.48      0.0000 0.014
           66        0.79 0.007     1.44      0.0000 0.014       0.79 0.007     2.88     0.31      0.0000 0.014
           67        4.34 0.004     3.15      0.0000 0.014       4.34 0.004     4.56     0.41      0.0000 0.014
           68        1.47 0.005     2.00      0.0000 0.014       1.47 0.005     3.49     0.35      0.0000 0.014
           69        0.14 0.002     1.42      0.0000 0.014       0.14 0.002     2.86     0.31      0.0000 0.014
           70        1.17 0.005     1.94      0.0000 0.014       1.17 0.005     3.43     0.35      0.0000 0.014
           71        0.09 0.007     1.10      0.0000 0.014       0.09 0.007     2.46     0.28      0.0000 0.014
           72        0.13 0.000     0.33      0.0000 0.014       0.13 0.000    20.83     1.03      0.0000 0.014
           73        0.89 0.007     1.39      0.0000 0.014       0.89 0.007     2.83     0.31      0.0000 0.014
           74        1.93 0.004     2.17      0.0000 0.014       1.93 0.004     3.66     0.36      0.0000 0.014
           75        0.62 0.010     1.34      0.0000 0.014       0.62 0.010     2.76     0.30      0.0000 0.014
           76        2.02 0.006     2.09      0.0000 0.014       2.02 0.006     3.58     0.36      0.0000 0.014
           77        0.62 0.004     1.50      0.0000 0.014       0.62 0.004     2.95     0.32      0.0000 0.014
           78        2.95 0.004     2.94      0.0000 0.014       2.95 0.004     4.38     0.40      0.0000 0.014
           79        0.42 0.008     1.41      0.0000 0.014       0.42 0.008     2.85     0.31      0.0000 0.014
           80        0.47 0.003     1.42      0.0000 0.014       0.47 0.003     2.86     0.31      0.0000 0.014
           81        1.49 0.005     1.89      0.0000 0.014       1.49 0.005     3.38     0.34      0.0000 0.014
           82        0.14 0.005     1.09      0.0000 0.014       0.14 0.005     2.44     0.28      0.0000 0.014
           83        6.10 0.004     3.12      0.0000 0.014       6.10 0.004     4.54     0.41      0.0000 0.014
           84        1.52 0.006     1.52      0.0000 0.014       1.52 0.006     2.97     0.32      0.0000 0.014
           85        1.14 0.008     1.44      0.0000 0.014       1.14 0.008     2.88     0.31      0.0000 0.014
           86        1.82 0.004     2.21      0.0000 0.014       1.82 0.004     3.70     0.36      0.0000 0.014
           87        0.66 0.007     1.31      0.0000 0.014       0.66 0.007     2.72     0.30      0.0000 0.014
           88        1.84 0.007     2.55      0.0000 0.014       1.84 0.007     4.03     0.38      0.0000 0.014
           89        1.40 0.004     1.91      0.0000 0.014       1.40 0.004     3.40     0.34      0.0000 0.014
           90        0.64 0.007     1.84      0.0000 0.014       0.64 0.007     3.32     0.34      0.0000 0.014
           91        3.11 0.005     2.40      0.0000 0.014       3.11 0.005     3.89     0.37      0.0000 0.014
           92        0.64 0.007     1.26      0.0000 0.014       0.64 0.007     2.67     0.30      0.0000 0.014
           93        0.29 0.010     1.17      0.0000 0.014       0.29 0.010     2.55     0.29      0.0000 0.014
           94        0.47 0.002     1.29      0.0000 0.014       0.47 0.002     2.70     0.30      0.0000 0.014
           95        1.56 0.003     2.33      0.0000 0.014       1.56 0.003     3.82     0.37      0.0000 0.014
           96        1.31 0.005     1.78      0.0000 0.014       1.31 0.005     3.27     0.34      0.0000 0.014
           97        1.81 0.006     2.05      0.0000 0.014       1.81 0.006     3.55     0.35      0.0000 0.014
           98        1.36 0.005     1.67      0.0000 0.014       1.36 0.005     3.15     0.33      0.0000 0.014
           99        0.66 0.009     1.46      0.0000 0.014       0.66 0.009     2.91     0.31      0.0000 0.014
          100        1.39 0.005     2.12      0.0000 0.014       1.39 0.005     3.61     0.36      0.0000 0.014
          101        1.08 0.004     1.71      0.0000 0.014       1.08 0.004     3.19     0.33      0.0000 0.014
          102        1.26 0.007     1.53      0.0000 0.014       1.26 0.007     2.98     0.32      0.0000 0.014
          103        0.81 0.004     0.69      0.0000 0.014       0.81 0.004     3.82     0.37      0.0000 0.014
          104        4.00 0.004     3.50      0.0000 0.014       4.00 0.004     4.85     0.43      0.0000 0.014
          105        2.08 0.005     2.42      0.0000 0.014       2.08 0.005     3.90     0.38      0.0000 0.014
          106        0.77 0.007     1.37      0.0000 0.014       0.77 0.007     2.80     0.31      0.0000 0.014
          107        1.04 0.006     1.55      0.0000 0.014       1.04 0.006     3.01     0.32      0.0000 0.014
          108        3.40 0.004     2.86      0.0000 0.014       3.40 0.004     4.31     0.40      0.0000 0.014
          109        0.61 0.002     1.15      0.0000 0.014       0.61 0.002     4.59     0.41      0.0000 0.014
          110        1.39 0.003     1.29      0.0000 0.014       1.39 0.003     4.55     0.41      0.0000 0.014
          111        0.95 0.008     1.69      0.0000 0.014       0.95 0.008     3.17     0.33      0.0000 0.014
          112        0.46 0.005     1.30      0.0000 0.014       0.46 0.005     2.71     0.30      0.0000 0.014
          113        0.49 0.003     1.53      0.0000 0.014       0.49 0.003     2.99     0.32      0.0000 0.014
          114        2.49 0.005     2.07      0.0000 0.014       2.49 0.005     3.56     0.35      0.0000 0.014
          115        1.18 0.003     1.33      0.0000 0.014       1.18 0.003     5.29     0.45      0.0000 0.014
          116        0.80 0.003     1.17      0.0000 0.014       0.80 0.003     4.29     0.40      0.0000 0.014
          117        0.17 0.011     1.12      0.0000 0.014       0.17 0.011     2.48     0.28      0.0000 0.014
          118        0.63 0.007     1.29      0.0000 0.014       0.63 0.007     2.70     0.30      0.0000 0.014
          119        0.55 0.004     1.34      0.0000 0.014       0.55 0.004     2.76     0.30      0.0000 0.014
          120        2.17 0.005     2.43      0.0000 0.014       2.17 0.005     3.92     0.38      0.0000 0.014
          121        0.17 0.002     0.15      0.0000 0.014       0.17 0.002     4.87     0.43      0.0000 0.014
          122        3.56 0.002     3.27      0.0000 0.014       3.56 0.002     5.97     0.49      0.0000 0.014
          123        0.46 0.006     1.36      0.0000 0.014       0.46 0.006     2.79     0.31      0.0000 0.014
          124        0.35 0.003     1.14      0.0000 0.014       0.35 0.003     2.51     0.29      0.0000 0.014
          125        0.95 0.003     1.18      0.0000 0.014       0.95 0.003     4.47     0.41      0.0000 0.014
          126        1.47 0.007     1.55      0.0000 0.014       1.47 0.007     3.00     0.32      0.0000 0.014
          127        4.08 0.002     3.07      0.0000 0.014       4.08 0.002     6.96     0.53      0.0000 0.014
          128        2.38 0.002     2.14      0.0000 0.014       2.38 0.002     5.54     0.46      0.0000 0.014
          129        0.52 0.008     1.65      0.0000 0.014       0.52 0.008     3.12     0.33      0.0000 0.014
          130        1.67 0.005     2.04      0.0000 0.014       1.67 0.005     3.54     0.35      0.0000 0.014
          131        0.19 0.002     0.30      0.0000 0.014       0.19 0.002     4.44     0.41      0.0000 0.014
          132        1.05 0.006     1.53      0.0000 0.014       1.05 0.006     2.99     0.32      0.0000 0.014
          133        2.16 0.004     1.25      0.0000 0.014       2.16 0.004     3.91     0.38      0.0000 0.014
          134        0.92 0.004     0.73      0.0000 0.014       0.92 0.004     3.88     0.37      0.0000 0.014
          135        0.33 0.005     1.12      0.0000 0.014       0.33 0.005     2.48     0.28      0.0000 0.014
          136        2.22 0.002     1.79      0.0000 0.014       2.22 0.002     3.27     0.34      0.0000 0.014
          137        3.80 0.002     2.74      0.0000 0.014       3.80 0.002     5.80     0.48      0.0000 0.014
          138        1.31 0.005     1.58      0.0000 0.014       1.31 0.005     3.04     0.32      0.0000 0.014
          139        1.99 0.002     1.73      0.0000 0.014       1.99 0.002     6.19     0.50      0.0000 0.014
          140        0.40 0.003     0.53      0.0000 0.014       0.40 0.003     4.28     0.40      0.0000 0.014
          141        1.29 0.003     1.71      0.0000 0.014       1.29 0.003     3.18     0.33      0.0000 0.014
          142        2.26 0.005     2.12      0.0000 0.014       2.26 0.005     3.61     0.36      0.0000 0.014
          143        0.22 0.008     0.20      0.0000 0.014       0.22 0.008     4.58     0.41      0.0000 0.014
          144        1.60 0.004     1.68      0.0000 0.014       1.60 0.004     4.16     0.39      0.0000 0.014
          145        1.22 0.002     1.28      0.0000 0.014       1.22 0.002     7.02     0.54      0.0000 0.014
          146        2.08 0.004     2.04      0.0000 0.014       2.08 0.004     5.26     0.45      0.0000 0.014
          147        0.26 0.009     1.22      0.0000 0.014       0.26 0.009     2.61     0.29      0.0000 0.014
          148        1.17 0.004     1.68      0.0000 0.014       1.17 0.004     4.11     0.39      0.0000 0.014
          149        0.66 0.001     0.57      0.0000 0.014       0.66 0.001     6.56     0.51      0.0000 0.014
          150        0.75 0.004     0.75      0.0000 0.014       0.75 0.004     3.58     0.36      0.0000 0.014
          151        0.09 0.002     0.06      0.0000 0.014       0.09 0.002     7.20     0.54      0.0000 0.014
          152        0.58 0.000     0.63      0.0000 0.014       0.58 0.000     7.45     0.55      0.0000 0.014
          153        0.72 0.005     1.19      0.0000 0.014       0.72 0.005     4.05     0.38      0.0000 0.014
          154        0.62 0.003     0.52      0.0000 0.014       0.62 0.003     4.77     0.42      0.0000 0.014
          155        0.39 0.001     0.52      0.0000 0.014       0.38 0.001     7.26     0.55      0.0000 0.014
          156        0.89 0.004     0.80      0.0000 0.014       0.89 0.004     4.58     0.41      0.0000 0.014
          157        1.88 0.001     1.88      0.0000 0.014       1.88 0.001     7.65     0.56      0.0000 0.014
          158        0.85 0.001     1.22      0.0000 0.014       0.85 0.001     8.08     0.58      0.0000 0.014
          159        2.58 0.003     1.95      0.0000 0.014       2.58 0.003     4.61     0.41      0.0000 0.014
          160        0.77 0.004     0.73      0.0000 0.014       0.77 0.004     4.99     0.44      0.0000 0.014
          161        1.56 0.003     1.60      0.0000 0.014       1.56 0.003     5.66     0.47      0.0000 0.014
          162        0.71 0.002     0.55      0.0000 0.014       0.71 0.002     4.11     0.39      0.0000 0.014
          163        0.47 0.005     0.38      0.0000 0.014       0.47 0.005     6.76     0.52      0.0000 0.014
          164        1.98 0.003     1.86      0.0000 0.014       1.98 0.003     4.91     0.43      0.0000 0.014
          165        0.42 0.005     0.37      0.0000 0.014       0.42 0.005     4.20     0.39      0.0000 0.014
          166        0.97 0.001     0.68      0.0000 0.014       0.97 0.001     4.38     0.40      0.0000 0.014
          167        0.93 0.001     0.87      0.0000 0.014       0.93 0.001     8.39     0.60      0.0000 0.014
          168        0.17 0.002     0.21      0.0000 0.014       0.17 0.002     5.47     0.46      0.0000 0.014
          169        0.22 0.000     0.41      0.0000 0.014       0.22 0.000     7.10     0.54      0.0000 0.014
          170        0.80 0.000     0.71      0.0000 0.014       0.80 0.000     9.97     0.66      0.0000 0.014
          171        0.82 0.002     0.93      0.0000 0.014       0.82 0.002     5.42     0.46      0.0000 0.014
          172        0.52 0.003     0.44      0.0000 0.014       0.52 0.003     4.28     0.40      0.0000 0.014
          173        2.82 0.002     2.70      0.0000 0.014       2.82 0.002     9.26     0.63      0.0000 0.014
          174        1.42 0.001     2.00      0.0000 0.014       1.42 0.001     6.24     0.50      0.0000 0.014
          175        2.06 0.002     1.98      0.0000 0.014       2.06 0.002     7.41     0.55      0.0000 0.014
          176        0.33 0.002     1.54      0.0000 0.014       0.33 0.002    10.62     0.69      0.0000 0.014
          177        0.49 0.004     0.61      0.0000 0.014       0.49 0.004     4.76     0.42      0.0000 0.014
          178        2.91 0.002     2.79      0.0000 0.014       2.91 0.002     5.97     0.49      0.0000 0.014
          179        0.83 0.003     0.97      0.0000 0.014       0.83 0.003     5.05     0.44      0.0000 0.014
          180        0.20 0.000     0.16      0.0000 0.014       0.20 0.000     4.23     0.39      0.0000 0.014
          181        1.98 0.002     1.70      0.0000 0.014       1.98 0.002     8.01     0.58      0.0000 0.014
          182        3.24 0.001     2.22      0.0000 0.014       3.24 0.001    10.80     0.69      0.0000 0.014
          183        1.47 0.002     1.78      0.0000 0.014       1.47 0.002     6.11     0.49      0.0000 0.014
          184        2.23 0.003     1.78      0.0000 0.014       2.23 0.003     4.45     0.41      0.0000 0.014
          185        0.35 0.001     0.41      0.0000 0.014       0.35 0.001    12.43     0.76      0.0000 0.014
          186        0.56 0.000     0.75      0.0000 0.014       0.56 0.000     9.45     0.64      0.0000 0.014
          187        1.60 0.003     1.27      0.0000 0.014       1.60 0.003     8.14     0.58      0.0000 0.014
          188        0.47 0.002     0.39      0.0000 0.014       0.47 0.002    11.13     0.71      0.0000 0.014
          189        1.83 0.002     1.38      0.0000 0.014       1.83 0.002     6.66     0.52      0.0000 0.014
          190        1.24 0.002     1.39      0.0000 0.014       1.24 0.002     6.14     0.49      0.0000 0.014
          191        1.46 0.002     1.05      0.0000 0.014       1.46 0.002    14.75     0.84      0.0000 0.014
          192        0.46 0.004     0.77      0.0000 0.014       0.46 0.004     5.68     0.47      0.0000 0.014
          193        0.03 0.005     0.15      0.0000 0.014       0.03 0.005    12.54     0.76      0.0000 0.014
          194        0.74 0.002     0.68      0.0000 0.014       0.74 0.002     7.24     0.55      0.0000 0.014
          195        3.15 0.002     2.82      0.0000 0.014       3.15 0.002     7.21     0.54      0.0000 0.014
          196        3.27 0.001     2.85      0.0000 0.014       3.27 0.001    12.70     0.77      0.0000 0.014
          197        0.31 0.002     0.34      0.0000 0.014       0.31 0.002     6.01     0.49      0.0000 0.014
          198        1.64 0.001     1.58      0.0000 0.014       1.64 0.001    12.77     0.77      0.0000 0.014
          199        1.85 0.000     1.50      0.0000 0.014       1.85 0.000    12.91     0.77      0.0000 0.014
          200        0.31 0.001     0.32      0.0000 0.014       0.31 0.001     7.06     0.54      0.0000 0.014
          201        0.29 0.001     0.34      0.0000 0.014       0.29 0.001    14.78     0.84      0.0000 0.014
          202        1.15 0.003     1.34      0.0000 0.014       1.15 0.003     6.39     0.50      0.0000 0.014
          203        0.25 0.005     0.52      0.0000 0.014       0.25 0.005     7.04     0.54      0.0000 0.014
          204        0.28 0.004     0.28      0.0000 0.014       0.28 0.004     4.68     0.42      0.0000 0.014
          205        0.20 0.001     0.18      0.0000 0.014       0.20 0.001    14.86     0.84      0.0000 0.014
          206        1.11 0.002     2.18      0.0000 0.014       1.11 0.002     7.09     0.54      0.0000 0.014
          207        0.56 0.002     0.63      0.0000 0.014       0.56 0.002     7.45     0.56      0.0000 0.014
          208        1.28 0.002     1.05      0.0000 0.014       1.28 0.002     5.22     0.45      0.0000 0.014
          209        2.16 0.001     1.61      0.0000 0.014       2.16 0.001    12.90     0.77      0.0000 0.014
          210        1.51 0.003     1.82      0.0000 0.014       1.51 0.003     7.37     0.55      0.0000 0.014
          211        1.05 0.000     1.02      0.0000 0.014       1.05 0.000     7.71     0.57      0.0000 0.014
          212        0.93 0.002     0.94      0.0000 0.014       0.93 0.002    10.33     0.68      0.0000 0.014
          213        1.22 0.001     1.16      0.0000 0.014       1.22 0.001    17.82     0.94      0.0000 0.014
          214        1.18 0.000     1.39      0.0000 0.014       1.18 0.000     8.12     0.58      0.0000 0.014
          215        0.21 0.000     0.30      0.0000 0.014       0.20 0.000    13.31     0.79      0.0000 0.014
          216        0.27 0.002     0.31      0.0000 0.014       0.27 0.002    14.13     0.82      0.0000 0.014
          217        1.16 0.000     0.77      0.0000 0.014       1.16 0.000    17.87     0.94      0.0000 0.014
          218        1.36 0.001     1.44      0.0000 0.014       1.36 0.001    18.58     0.96      0.0000 0.014
          219        1.39 0.002     1.22      0.0000 0.014       1.39 0.002    13.46     0.79      0.0000 0.014
          220        0.43 0.000     0.71      0.0000 0.014       0.44 0.000    14.27     0.82      0.0000 0.014
          221        0.32 0.001     0.52      0.0000 0.014       0.32 0.001    18.35     0.96      0.0000 0.014
          222        1.13 0.000     1.75      0.0000 0.014       1.13 0.000    19.53     0.99      0.0000 0.014
          223        0.68 0.003     0.76      0.0000 0.014       0.68 0.003     7.99     0.58      0.0000 0.014
          224        1.09 0.000     1.63      0.0000 0.014       1.09 0.000    10.88     0.70      0.0000 0.014
          225        1.80 0.000     2.04      0.0000 0.014       1.80 0.000    18.45     0.96      0.0000 0.014
          226        0.72 0.000     0.63      0.0000 0.014       0.72 0.000    19.63     1.00      0.0000 0.014
          227        0.20 0.003     0.27      0.0000 0.014       0.20 0.003     8.25     0.59      0.0000 0.014
          228        2.27 0.001     1.82      0.0000 0.014       2.27 0.001    14.35     0.82      0.0000 0.014
          229        1.81 0.000     2.56      0.0000 0.014       1.81 0.000    19.74     1.00      0.0000 0.014
          230        0.04 0.001     0.04      0.0000 0.014       0.04 0.001    13.54     0.80      0.0000 0.014
          231        1.98 0.000     1.80      0.0000 0.014       1.98 0.000    11.09     0.71      0.0000 0.014
          232        1.04 0.000     0.93      0.0000 0.014       1.04 0.000    13.82     0.81      0.0000 0.014
          233        0.44 0.000     0.53      0.0000 0.014       0.44 0.000    14.46     0.83      0.0000 0.014
          234        0.80 0.001     0.85      0.0000 0.014       0.80 0.001     8.41     0.60      0.0000 0.014
          235        1.59 0.000     1.46      0.0000 0.014       1.59 0.000    14.55     0.83      0.0000 0.014
          236        2.22 0.002     1.92      0.0000 0.014       2.22 0.002     8.74     0.61      0.0000 0.014
          237        1.52 0.002     1.52      0.0000 0.014       1.52 0.002    11.27     0.71      0.0000 0.014
          238        1.26 0.000     1.17      0.0000 0.014       1.26 0.000    13.92     0.81      0.0000 0.014
          239        1.91 0.001     1.70      0.0000 0.014       1.91 0.001    11.99     0.74      0.0000 0.014
          240        0.07 0.001     0.12      0.0000 0.014       0.07 0.001    12.04     0.74      0.0000 0.014
